filtru trece-sus
Vin 1 0 AC 1V PWL(0, 0 0.2ms, 0V 0.2001ms, 1V 1ms, 1V)
R1 2 0 10
C1 1 0 15uF
.tran 0.01ms 1ms
.probe
.end
